%nproc=28
%mem=120GB
%chk=/gscratch/ilahie/mccoygrp/coire_hocl/oop_s_rOH_f/brhocl/brhocl_oop_0_sp.chk
#p pop=NBO SP NoSymm mp2/aug-cc-pvtz density=current

title

-1 1
O
X       1       10.
Cl      1       r1      2       90.
Br      1       r2      2       90.     3       a1
H       1       r3      2       oop     3       a1
Variables
 r1=1.69730154
 r2=3.09318778
 r3=0.96862334
 a1=102.48429983
 OOP= 60.

