%nproc=28
%mem=120GB
%chk=/gscratch/ilahie/mccoygrp/coire_hocl/oop_s_rOH_opt/brhod/brhod_oop_35_sp.chk
#p pop=NBO SP NoSymm mp2/aug-cc-pvtz density=current

title

-1 1
O
X       1       10.
H(iso=2)        1       r1      2       90.
Br      1       r2      2       90.     3       a1
H       1       r3      2       oop     3       a1
Variables
 r1=0.96078759
 r2=3.25661955
 r3=0.97503
 a1=101.73887131
 OOP= 55.

