%nproc=28
%mem=120GB
%chk=/gscratch/ilahie/mccoygrp/coire_hocl/brhocl/brhocl_rOH_opt.chk
#p opt=(z-matrix) mp2/aug-cc-pvtz density=current

title

-1 1
O
X	1	10.
Cl	1	r1	2	90.
Br	1	r2	2	90.	3	a1
H	1	r3	2	oop	3	a1
Variables
 r1= 1.68432553 F
 r2= 3.07381747 F
 r3= 1.01773683 
 a1= 103.42034752 F
 OOP= 90. S 10 -5.  






