%nproc=28
%mem=120GB
%chk=/gscratch/ilahie/mccoygrp/coire_hocl/rOH_s_oop_0/brhod_pp/brhod_pp_rOH_125_sp.chk
#p pop=NBO SP NoSymm mp2/gen Pseudo=read density=current 

title

-1 1
O
X       1       10.
H(iso=2)      1       r1      2       90.
Br      1       r2      2       90.     3       a1
H       1       r3      2       oop     3       a1
Variables
 r1=0.96048156
 r2=3.25083182
 r3=1.25
 a1=101.65547111
 OOP= 90.

H O H 0
aug-cc-pVTZ
****
Br 0
S    10   1.00
   9659.3900000              0.0003710
   1455.9600000              0.0025710
    325.9140000              0.0084850
     46.5657000              0.0782220
     18.2469000             -0.3971490
      3.8020100              0.6858640
      1.7863200              0.4868190
      0.6027140              0.0349130
      0.2840140             -0.0065730
      0.1202710              0.0016420
S    10   1.00
   9659.3900000             -0.0001520
   1455.9600000             -0.0010080
    325.9140000             -0.0036090
     46.5657000             -0.0278720
     18.2469000              0.1513170
      3.8020100             -0.3514970
      1.7863200             -0.4107030
      0.6027140              0.3473160
      0.2840140              0.6754910
      0.1202710              0.2440080
S    1   1.00
      0.6027140              1.0000000
S    1   1.00
      0.2840140              1.0000000
S    1   1.00
      0.1202710              1.0000000
S    1   1.00
      0.0445000              1.0000000
P    9   1.00
    492.1870000              0.0004720
     92.3642000              0.0054940
     27.0718000             -0.0880300
      7.2653900              0.3434850
      3.4848100              0.5102080
      1.6404800              0.2486310
      0.6485700              0.0222010
      0.2564070             -0.0004190
      0.0953040              0.0006560
P    9   1.00
    492.1870000             -0.0001580
     92.3642000             -0.0013440
     27.0718000              0.0246160
      7.2653900             -0.1125320
      3.4848100             -0.1797750
      1.6404800             -0.0736610
      0.6485700              0.3487340
      0.2564070              0.5579480
      0.0953040              0.2664560
P    1   1.00
      0.7666000              1.0000000
P    1   1.00
      0.1182000              1.0000000
P    1   1.00
      0.0396000              1.0000000
D    8   1.00
    338.9960000              0.0015240
    103.2170000              0.0156730
     42.3638000              0.0724000
     18.4356000              0.1863030
      8.3725400              0.3238810
      3.8022200              0.3745340
      1.6867700              0.2574180
      0.6775200              0.0680510
D    1   1.00
      0.6775200              1.0000000
D    1   1.00
      0.2553000              1.0000000
D    1   1.00
      0.1009000              1.0000000
F    1   1.00
      0.5606000              1.0000000
F    1   1.00
      0.2454000              1.0000000
****

BR     0
BR-ECP     4     10
g potential
  1
2      1.0000000              0.0000000
s-g potential
  3
2     70.0242570             49.9628340
2     31.1784120            370.0142050
2      7.1565930             10.2414390
p-g potential
  4
2     46.7734710             99.1122440
2     46.1841200            198.2530460
2     21.7138580             28.2617400
2     20.9417920             56.6233660
d-g potential
  6
2     50.6988390            -18.6058530
2     50.6447640            -27.9232800
2     15.4475090             -0.3796930
2     15.5002590             -0.7805830
2      2.8003910              0.0359680
2      1.0774800              0.0943970
f-g potential
  2
2     14.4656060             -1.0912690
2     21.2340650             -2.8876910







!----------------------------------------------------------------------
! Basis Set Exchange
! Version v0.8.13
! https://www.basissetexchange.org
!----------------------------------------------------------------------
!   Basis set: aug-cc-pVTZ-PP
! Description: aug-cc-pVTZ-PP
!        Role: orbital
!     Version: 0  (Data from the original Basis Set Exchange)
!----------------------------------------------------------------------







