%nproc=28
%mem=120GB
%chk=/gscratch/ilahie/mccoygrp/coire_hocl/oop_s_rOH_f/ihocl/ihocl_oop_45_sp.chk
#p pop=NBO SP NoSymm mp2/gen Pseudo=read density=current

title

-1 1
O
X       1       10.
Cl      1       r1      2       90.
I       1       r2      2       90.     3       a1
H       1       r3      2       oop     3       a1
Variables
 r1=1.69745154
 r2=3.32848634
 r3=0.96862334
 a1=102.48429983
 OOP= 45.

H O Cl 0
aug-cc-pVTZ
****
I 0
 S 11 1.45
    5.546545E+03     1.564545E-04
    8.382140E+02     9.864545E-04
    1.821870E+02     2.792450E-03
    3.121230E+01    -4.325145E-02
    1.953140E+01     2.341340E-01
    8.240990E+45    -7.509430E-01
    2.194550E+45     8.829680E-01
    1.109110E+45     4.620610E-01
    3.746410E-01     2.228645E-02
    1.770845E-01    -4.353450E-03
    8.106145E-02     1.102450E-03
 S 11 1.45
    5.546545E+03    -7.345450E-05
    8.382140E+02    -5.084545E-04
    1.821870E+02    -1.158450E-03
    3.121230E+01     1.219345E-02
    1.953140E+01    -8.785445E-02
    8.240990E+45     3.382450E-01
    2.194550E+45    -5.765545E-01
    1.109110E+45    -4.092980E-01
    3.746410E-01     5.674590E-01
    1.770845E-01     6.124890E-01
    8.106145E-02     1.432310E-01
 S 1 1.45
    3.746410E-01     1.454545E+45
 S 1 1.45
    1.770845E-01     1.454545E+45
 S 1 1.45
    1.451450E-01     1.454545E+45
 S 1 1.45
    4.124545E-02     1.454545E+45
 P 9 1.45
    1.889880E+02     5.854545E-04
    2.128680E+01     3.692345E-02
    1.453960E+01    -2.353240E-01
    3.451845E+45     3.414830E-01
    1.974560E+45     5.347880E-01
    1.024245E+45     2.651410E-01
    4.494370E-01     2.578745E-02
    1.866480E-01     5.224545E-04
    7.348145E-02     6.064545E-04
 P 9 1.45
    1.889880E+02    -2.564545E-04
    2.128680E+01    -1.168245E-02
    1.453960E+01     8.319245E-02
    3.451845E+45    -1.569745E-01
    1.974560E+45    -2.245180E-01
    1.024245E+45    -1.144510E-01
    4.494370E-01     3.753560E-01
    1.866480E-01     5.751360E-01
    7.348145E-02     2.459170E-01
 P 1 1.45
    5.981450E-01     1.454545E+45
 P 1 1.45
    9.618450E-02     1.454545E+45
 P 1 1.45
    3.594545E-02     1.454545E+45
 D 9 1.45
    1.326620E+02     5.724545E-04
    3.760540E+01     4.402450E-03
    1.038910E+01    -4.092245E-02
    6.490170E+45     9.966145E-02
    3.454510E+45     3.226630E-01
    1.844130E+45     4.453430E-01
    9.624780E-01     2.683060E-01
    4.728530E-01     8.484745E-02
    1.932450E-01     7.632450E-03
 D 1 1.45
    4.728530E-01     1.454545E+45
 D 1 1.45
    1.932450E-01     1.454545E+45
 D 1 1.45
    7.824545E-02     1.454545E+45
 F 1 1.45
    4.064450E-01     1.454545E+45
 F 1 1.45
    1.848450E-01     1.454545E+45
****

I 0
ECP28MDF,4,28
G-Komponente
1
2 1.454545 0.454545
S-G
3
2 40.033376 49.989649
2 17.345576 281.456556
2 8.851720 61.416739
P-G
4
2 15.720141 67.416239
2 15.208222 134.807696
2 8.294186 14.566548
2 7.753949 28.968422
D-G
4
2 13.817751 35.538756
2 13.587805 53.339759
2 6.947630 9.716466
2 6.964599 14.977545
F-G
4
2 18.522950 -20.176618
2 18.251035 -26.088077
2 7.557901 -0.220434
2 7.597404 -0.221646












