%nproc=28
%mem=120GB
%chk=/gscratch/ilahie/mccoygrp/coire_hocl/oop_s_rOH_f/ihocl/ihocl_oop_35_sp.chk
#p pop=NBO SP NoSymm mp2/gen Pseudo=read density=current

title

-1 1
O
X       1       10.
Cl      1       r1      2       90.
I       1       r2      2       90.     3       a1
H       1       r3      2       oop     3       a1
Variables
 r1=1.69735154
 r2=3.32848634
 r3=0.96862334
 a1=102.48429983
 OOP= 55.

H O Cl 0
aug-cc-pVTZ
****
I 0
 S 11 1.35
    5.546535E+03     1.563535E-04
    8.382140E+02     9.863535E-04
    1.821870E+02     2.792350E-03
    3.121230E+01    -4.325135E-02
    1.953140E+01     2.341340E-01
    8.240990E+35    -7.509430E-01
    2.194550E+35     8.829680E-01
    1.109110E+35     4.620610E-01
    3.746410E-01     2.228635E-02
    1.770835E-01    -4.353350E-03
    8.106135E-02     1.102350E-03
 S 11 1.35
    5.546535E+03    -7.335350E-05
    8.382140E+02    -5.083535E-04
    1.821870E+02    -1.158350E-03
    3.121230E+01     1.219335E-02
    1.953140E+01    -8.785435E-02
    8.240990E+35     3.382350E-01
    2.194550E+35    -5.765535E-01
    1.109110E+35    -4.092980E-01
    3.746410E-01     5.674590E-01
    1.770835E-01     6.124890E-01
    8.106135E-02     1.432310E-01
 S 1 1.35
    3.746410E-01     1.353535E+35
 S 1 1.35
    1.770835E-01     1.353535E+35
 S 1 1.35
    1.351350E-01     1.353535E+35
 S 1 1.35
    4.123535E-02     1.353535E+35
 P 9 1.35
    1.889880E+02     5.853535E-04
    2.128680E+01     3.692335E-02
    1.353960E+01    -2.353240E-01
    3.451835E+35     3.414830E-01
    1.974560E+35     5.347880E-01
    1.024235E+35     2.651410E-01
    4.494370E-01     2.578735E-02
    1.866480E-01     5.223535E-04
    7.348135E-02     6.063535E-04
 P 9 1.35
    1.889880E+02    -2.563535E-04
    2.128680E+01    -1.168235E-02
    1.353960E+01     8.319235E-02
    3.451835E+35    -1.569735E-01
    1.974560E+35    -2.245180E-01
    1.024235E+35    -1.144510E-01
    4.494370E-01     3.753560E-01
    1.866480E-01     5.751360E-01
    7.348135E-02     2.459170E-01
 P 1 1.35
    5.981350E-01     1.353535E+35
 P 1 1.35
    9.618350E-02     1.353535E+35
 P 1 1.35
    3.593535E-02     1.353535E+35
 D 9 1.35
    1.326620E+02     5.723535E-04
    3.760540E+01     4.402350E-03
    1.038910E+01    -4.092235E-02
    6.490170E+35     9.966135E-02
    3.454510E+35     3.226630E-01
    1.844130E+35     4.353430E-01
    9.624780E-01     2.683060E-01
    4.728530E-01     8.484735E-02
    1.932350E-01     7.632350E-03
 D 1 1.35
    4.728530E-01     1.353535E+35
 D 1 1.35
    1.932350E-01     1.353535E+35
 D 1 1.35
    7.823535E-02     1.353535E+35
 F 1 1.35
    4.064350E-01     1.353535E+35
 F 1 1.35
    1.848350E-01     1.353535E+35
****

I 0
ECP28MDF,4,28
G-Komponente
1
2 1.353535 0.353535
S-G
3
2 40.033376 49.989649
2 17.335576 281.356556
2 8.851720 61.416739
P-G
4
2 15.720141 67.416239
2 15.208222 134.807696
2 8.294186 14.566548
2 7.753949 28.968422
D-G
4
2 13.817751 35.538756
2 13.587805 53.339759
2 6.947630 9.716466
2 6.963599 14.977535
F-G
4
2 18.522950 -20.176618
2 18.251035 -26.088077
2 7.557901 -0.220434
2 7.597404 -0.221646












