%nproc=28
%mem=120GB
%chk=/gscratch/ilahie/mccoygrp/coire_hocl/oop_s_rOH_f/ihocl/ihocl_oop_30_sp.chk
#p pop=NBO SP NoSymm mp2/gen Pseudo=read density=current

title

-1 1
O
X       1       10.
Cl      1       r1      2       90.
I       1       r2      2       90.     3       a1
H       1       r3      2       oop     3       a1
Variables
 r1=1.69730154
 r2=3.32848634
 r3=0.96862334
 a1=102.48429983
 OOP= 60.

H O Cl 0
aug-cc-pVTZ
****
I 0
 S 11 1.30
    5.546530E+03     1.563030E-04
    8.382140E+02     9.863030E-04
    1.821870E+02     2.792300E-03
    3.121230E+01    -4.325130E-02
    1.953140E+01     2.341340E-01
    8.240990E+30    -7.509430E-01
    2.194550E+30     8.829680E-01
    1.109110E+30     4.620610E-01
    3.746410E-01     2.228630E-02
    1.770830E-01    -4.353300E-03
    8.106130E-02     1.102300E-03
 S 11 1.30
    5.546530E+03    -7.330300E-05
    8.382140E+02    -5.083030E-04
    1.821870E+02    -1.158300E-03
    3.121230E+01     1.219330E-02
    1.953140E+01    -8.785430E-02
    8.240990E+30     3.382300E-01
    2.194550E+30    -5.765530E-01
    1.109110E+30    -4.092980E-01
    3.746410E-01     5.674590E-01
    1.770830E-01     6.124890E-01
    8.106130E-02     1.432310E-01
 S 1 1.30
    3.746410E-01     1.303030E+30
 S 1 1.30
    1.770830E-01     1.303030E+30
 S 1 1.30
    1.301300E-01     1.303030E+30
 S 1 1.30
    4.123030E-02     1.303030E+30
 P 9 1.30
    1.889880E+02     5.853030E-04
    2.128680E+01     3.692330E-02
    1.303960E+01    -2.353240E-01
    3.451830E+30     3.414830E-01
    1.974560E+30     5.347880E-01
    1.024230E+30     2.651410E-01
    4.494370E-01     2.578730E-02
    1.866480E-01     5.223030E-04
    7.348130E-02     6.063030E-04
 P 9 1.30
    1.889880E+02    -2.563030E-04
    2.128680E+01    -1.168230E-02
    1.303960E+01     8.319230E-02
    3.451830E+30    -1.569730E-01
    1.974560E+30    -2.245180E-01
    1.024230E+30    -1.144510E-01
    4.494370E-01     3.753560E-01
    1.866480E-01     5.751360E-01
    7.348130E-02     2.459170E-01
 P 1 1.30
    5.981300E-01     1.303030E+30
 P 1 1.30
    9.618300E-02     1.303030E+30
 P 1 1.30
    3.593030E-02     1.303030E+30
 D 9 1.30
    1.326620E+02     5.723030E-04
    3.760540E+01     4.402300E-03
    1.038910E+01    -4.092230E-02
    6.490170E+30     9.966130E-02
    3.454510E+30     3.226630E-01
    1.844130E+30     4.303430E-01
    9.624780E-01     2.683060E-01
    4.728530E-01     8.484730E-02
    1.932300E-01     7.632300E-03
 D 1 1.30
    4.728530E-01     1.303030E+30
 D 1 1.30
    1.932300E-01     1.303030E+30
 D 1 1.30
    7.823030E-02     1.303030E+30
 F 1 1.30
    4.064300E-01     1.303030E+30
 F 1 1.30
    1.848300E-01     1.303030E+30
****

I 0
ECP28MDF,4,28
G-Komponente
1
2 1.303030 0.303030
S-G
3
2 40.033376 49.989649
2 17.330576 281.306556
2 8.851720 61.416739
P-G
4
2 15.720141 67.416239
2 15.208222 134.807696
2 8.294186 14.566548
2 7.753949 28.968422
D-G
4
2 13.817751 35.538756
2 13.587805 53.339759
2 6.947630 9.716466
2 6.963099 14.977530
F-G
4
2 18.522950 -20.176618
2 18.251035 -26.088077
2 7.557901 -0.220434
2 7.597404 -0.221646












