%nproc=28
%mem=120GB
%chk=/gscratch/ilahie/mccoygrp/coire_hocl/oop_s_rOH_f/ihocl/ihocl_oop_25_sp.chk
#p pop=NBO SP NoSymm mp2/gen Pseudo=read density=current

title

-1 1
O
X       1       10.
Cl      1       r1      2       90.
I       1       r2      2       90.     3       a1
H       1       r3      2       oop     3       a1
Variables
 r1=1.69725154
 r2=3.32848634
 r3=0.96862334
 a1=102.48429983
 OOP= 65.

H O Cl 0
aug-cc-pVTZ
****
I 0
 S 11 1.25
    5.546525E+03     1.562525E-04
    8.382140E+02     9.862525E-04
    1.821870E+02     2.792250E-03
    3.121230E+01    -4.325125E-02
    1.953140E+01     2.341340E-01
    8.240990E+25    -7.509430E-01
    2.194550E+25     8.829680E-01
    1.109110E+25     4.620610E-01
    3.746410E-01     2.228625E-02
    1.770825E-01    -4.353250E-03
    8.106125E-02     1.102250E-03
 S 11 1.25
    5.546525E+03    -7.325250E-05
    8.382140E+02    -5.082525E-04
    1.821870E+02    -1.158250E-03
    3.121230E+01     1.219325E-02
    1.953140E+01    -8.785425E-02
    8.240990E+25     3.382250E-01
    2.194550E+25    -5.765525E-01
    1.109110E+25    -4.092980E-01
    3.746410E-01     5.674590E-01
    1.770825E-01     6.124890E-01
    8.106125E-02     1.432310E-01
 S 1 1.25
    3.746410E-01     1.252525E+25
 S 1 1.25
    1.770825E-01     1.252525E+25
 S 1 1.25
    1.251250E-01     1.252525E+25
 S 1 1.25
    4.122525E-02     1.252525E+25
 P 9 1.25
    1.889880E+02     5.852525E-04
    2.128680E+01     3.692325E-02
    1.253960E+01    -2.353240E-01
    3.451825E+25     3.414830E-01
    1.974560E+25     5.347880E-01
    1.024225E+25     2.651410E-01
    4.494370E-01     2.578725E-02
    1.866480E-01     5.222525E-04
    7.348125E-02     6.062525E-04
 P 9 1.25
    1.889880E+02    -2.562525E-04
    2.128680E+01    -1.168225E-02
    1.253960E+01     8.319225E-02
    3.451825E+25    -1.569725E-01
    1.974560E+25    -2.245180E-01
    1.024225E+25    -1.144510E-01
    4.494370E-01     3.753560E-01
    1.866480E-01     5.751360E-01
    7.348125E-02     2.459170E-01
 P 1 1.25
    5.981250E-01     1.252525E+25
 P 1 1.25
    9.618250E-02     1.252525E+25
 P 1 1.25
    3.592525E-02     1.252525E+25
 D 9 1.25
    1.326620E+02     5.722525E-04
    3.760540E+01     4.402250E-03
    1.038910E+01    -4.092225E-02
    6.490170E+25     9.966125E-02
    3.454510E+25     3.226630E-01
    1.844130E+25     4.253430E-01
    9.624780E-01     2.683060E-01
    4.728530E-01     8.484725E-02
    1.932250E-01     7.632250E-03
 D 1 1.25
    4.728530E-01     1.252525E+25
 D 1 1.25
    1.932250E-01     1.252525E+25
 D 1 1.25
    7.822525E-02     1.252525E+25
 F 1 1.25
    4.064250E-01     1.252525E+25
 F 1 1.25
    1.848250E-01     1.252525E+25
****

I 0
ECP28MDF,4,28
G-Komponente
1
2 1.252525 0.252525
S-G
3
2 40.033376 49.989649
2 17.325576 281.256556
2 8.851720 61.416739
P-G
4
2 15.720141 67.416239
2 15.208222 134.807696
2 8.294186 14.566548
2 7.753949 28.968422
D-G
4
2 13.817751 35.538756
2 13.587805 53.339759
2 6.947630 9.716466
2 6.962599 14.977525
F-G
4
2 18.522950 -20.176618
2 18.251035 -26.088077
2 7.557901 -0.220434
2 7.597404 -0.221646












