%nproc=28
%mem=120GB
%chk=/gscratch/ilahie/mccoygrp/coire_hocl/oop_s_rOH_f/ihocl/ihocl_oop_15_sp.chk
#p pop=NBO SP NoSymm mp2/gen Pseudo=read density=current

title

-1 1
O
X       1       10.
Cl      1       r1      2       90.
I       1       r2      2       90.     3       a1
H       1       r3      2       oop     3       a1
Variables
 r1=1.69715154
 r2=3.32848634
 r3=0.96862334
 a1=102.48429983
 OOP= 75.

H O Cl 0
aug-cc-pVTZ
****
I 0
 S 11 1.15
    5.546515E+03     1.561515E-04
    8.382140E+02     9.861515E-04
    1.821870E+02     2.792150E-03
    3.121230E+01    -4.325115E-02
    1.953140E+01     2.341340E-01
    8.240990E+15    -7.509430E-01
    2.194550E+15     8.829680E-01
    1.109110E+15     4.620610E-01
    3.746410E-01     2.228615E-02
    1.770815E-01    -4.353150E-03
    8.106115E-02     1.102150E-03
 S 11 1.15
    5.546515E+03    -7.315150E-05
    8.382140E+02    -5.081515E-04
    1.821870E+02    -1.158150E-03
    3.121230E+01     1.219315E-02
    1.953140E+01    -8.785415E-02
    8.240990E+15     3.382150E-01
    2.194550E+15    -5.765515E-01
    1.109110E+15    -4.092980E-01
    3.746410E-01     5.674590E-01
    1.770815E-01     6.124890E-01
    8.106115E-02     1.432310E-01
 S 1 1.15
    3.746410E-01     1.151515E+15
 S 1 1.15
    1.770815E-01     1.151515E+15
 S 1 1.15
    1.151150E-01     1.151515E+15
 S 1 1.15
    4.121515E-02     1.151515E+15
 P 9 1.15
    1.889880E+02     5.851515E-04
    2.128680E+01     3.692315E-02
    1.153960E+01    -2.353240E-01
    3.451815E+15     3.414830E-01
    1.974560E+15     5.347880E-01
    1.024215E+15     2.651410E-01
    4.494370E-01     2.578715E-02
    1.866480E-01     5.221515E-04
    7.348115E-02     6.061515E-04
 P 9 1.15
    1.889880E+02    -2.561515E-04
    2.128680E+01    -1.168215E-02
    1.153960E+01     8.319215E-02
    3.451815E+15    -1.569715E-01
    1.974560E+15    -2.245180E-01
    1.024215E+15    -1.144510E-01
    4.494370E-01     3.753560E-01
    1.866480E-01     5.751360E-01
    7.348115E-02     2.459170E-01
 P 1 1.15
    5.981150E-01     1.151515E+15
 P 1 1.15
    9.618150E-02     1.151515E+15
 P 1 1.15
    3.591515E-02     1.151515E+15
 D 9 1.15
    1.326620E+02     5.721515E-04
    3.760540E+01     4.402150E-03
    1.038910E+01    -4.092215E-02
    6.490170E+15     9.966115E-02
    3.454510E+15     3.226630E-01
    1.844130E+15     4.153430E-01
    9.624780E-01     2.683060E-01
    4.728530E-01     8.484715E-02
    1.932150E-01     7.632150E-03
 D 1 1.15
    4.728530E-01     1.151515E+15
 D 1 1.15
    1.932150E-01     1.151515E+15
 D 1 1.15
    7.821515E-02     1.151515E+15
 F 1 1.15
    4.064150E-01     1.151515E+15
 F 1 1.15
    1.848150E-01     1.151515E+15
****

I 0
ECP28MDF,4,28
G-Komponente
1
2 1.151515 0.151515
S-G
3
2 40.033376 49.989649
2 17.315576 281.156556
2 8.851720 61.416739
P-G
4
2 15.720141 67.416239
2 15.208222 134.807696
2 8.294186 14.566548
2 7.753949 28.968422
D-G
4
2 13.817751 35.538756
2 13.587805 53.339759
2 6.947630 9.716466
2 6.961599 14.977515
F-G
4
2 18.522950 -20.176618
2 18.251035 -26.088077
2 7.557901 -0.220434
2 7.597404 -0.221646












