%nproc=28
%mem=120GB
%chk=/gscratch/ilahie/mccoygrp/coire_hocl/oop_s_rOH_f/ihocl/ihocl_oop_10_sp.chk
#p pop=NBO SP NoSymm mp2/gen Pseudo=read density=current

title

-1 1
O
X       1       10.
Cl      1       r1      2       90.
I       1       r2      2       90.     3       a1
H       1       r3      2       oop     3       a1
Variables
 r1=1.69710154
 r2=3.32848634
 r3=0.96862334
 a1=102.48429983
 OOP= 80.

H O Cl 0
aug-cc-pVTZ
****
I 0
 S 11 1.10
    5.546510E+03     1.561010E-04
    8.382140E+02     9.861010E-04
    1.821870E+02     2.792100E-03
    3.121230E+01    -4.325110E-02
    1.953140E+01     2.341340E-01
    8.240990E+10    -7.509430E-01
    2.194550E+10     8.829680E-01
    1.109110E+10     4.620610E-01
    3.746410E-01     2.228610E-02
    1.770810E-01    -4.353100E-03
    8.106110E-02     1.102100E-03
 S 11 1.10
    5.546510E+03    -7.310100E-05
    8.382140E+02    -5.081010E-04
    1.821870E+02    -1.158100E-03
    3.121230E+01     1.219310E-02
    1.953140E+01    -8.785410E-02
    8.240990E+10     3.382100E-01
    2.194550E+10    -5.765510E-01
    1.109110E+10    -4.092980E-01
    3.746410E-01     5.674590E-01
    1.770810E-01     6.124890E-01
    8.106110E-02     1.432310E-01
 S 1 1.10
    3.746410E-01     1.101010E+10
 S 1 1.10
    1.770810E-01     1.101010E+10
 S 1 1.10
    1.101100E-01     1.101010E+10
 S 1 1.10
    4.121010E-02     1.101010E+10
 P 9 1.10
    1.889880E+02     5.851010E-04
    2.128680E+01     3.692310E-02
    1.103960E+01    -2.353240E-01
    3.451810E+10     3.414830E-01
    1.974560E+10     5.347880E-01
    1.024210E+10     2.651410E-01
    4.494370E-01     2.578710E-02
    1.866480E-01     5.221010E-04
    7.348110E-02     6.061010E-04
 P 9 1.10
    1.889880E+02    -2.561010E-04
    2.128680E+01    -1.168210E-02
    1.103960E+01     8.319210E-02
    3.451810E+10    -1.569710E-01
    1.974560E+10    -2.245180E-01
    1.024210E+10    -1.144510E-01
    4.494370E-01     3.753560E-01
    1.866480E-01     5.751360E-01
    7.348110E-02     2.459170E-01
 P 1 1.10
    5.981100E-01     1.101010E+10
 P 1 1.10
    9.618100E-02     1.101010E+10
 P 1 1.10
    3.591010E-02     1.101010E+10
 D 9 1.10
    1.326620E+02     5.721010E-04
    3.760540E+01     4.402100E-03
    1.038910E+01    -4.092210E-02
    6.490170E+10     9.966110E-02
    3.454510E+10     3.226630E-01
    1.844130E+10     4.103430E-01
    9.624780E-01     2.683060E-01
    4.728530E-01     8.484710E-02
    1.932100E-01     7.632100E-03
 D 1 1.10
    4.728530E-01     1.101010E+10
 D 1 1.10
    1.932100E-01     1.101010E+10
 D 1 1.10
    7.821010E-02     1.101010E+10
 F 1 1.10
    4.064100E-01     1.101010E+10
 F 1 1.10
    1.848100E-01     1.101010E+10
****

I 0
ECP28MDF,4,28
G-Komponente
1
2 1.101010 0.101010
S-G
3
2 40.033376 49.989649
2 17.310576 281.106556
2 8.851720 61.416739
P-G
4
2 15.720141 67.416239
2 15.208222 134.807696
2 8.294186 14.566548
2 7.753949 28.968422
D-G
4
2 13.817751 35.538756
2 13.587805 53.339759
2 6.947630 9.716466
2 6.961099 14.977510
F-G
4
2 18.522950 -20.176618
2 18.251035 -26.088077
2 7.557901 -0.220434
2 7.597404 -0.221646












