%nproc=28
%mem=120GB
%chk=/gscratch/ilahie/mccoygrp/coire_hocl/clhocl/clhocl_30_sp.chk
#p SP NoSymm mp2/aug-cc-pvtz density=current

title

-1 1
O 0.00000000 0.00000000 0.00000000
Cl 2.90467600 0.00000000 0.00000000
Cl -0.39368664 1.63604860 0.00000000
H 0.86477979 0.00000000 0.49928085






























