%nproc=28
%mem=120GB
%chk=/gscratch/ilahie/mccoygrp/coire_hocl/oop_s_rOH_opt/ihod/ihod_oop_20.chk
#p pop=NBO SP NoSymm mp2/gen Pseudo=read density=current 

title

-1 1
O
X       1       10.
H(iso=2)      1       r1      2       90.
I       1       r2      2       90.     3       a1
H       1       r3      2       oop     3       a1
Variables
 r1=0.96090774
 r2=3.50850135
 r3=0.97863
 a1=101.85832064
 OOP= 70.

O H 0
aug-cc-pVTZ
****
I 0
 S 11 1.00
    5.546500E+03     1.560000E-04
    8.382140E+02     9.860000E-04
    1.821870E+02     2.792000E-03
    3.121230E+01    -4.325100E-02
    1.953140E+01     2.341340E-01
    8.240990E+00    -7.509430E-01
    2.194550E+00     8.829680E-01
    1.109110E+00     4.620610E-01
    3.746410E-01     2.228600E-02
    1.770800E-01    -4.353000E-03
    8.106100E-02     1.102000E-03
 S 11 1.00
    5.546500E+03    -7.300000E-05
    8.382140E+02    -5.080000E-04
    1.821870E+02    -1.158000E-03
    3.121230E+01     1.219300E-02
    1.953140E+01    -8.785400E-02
    8.240990E+00     3.382000E-01
    2.194550E+00    -5.765500E-01
    1.109110E+00    -4.092980E-01
    3.746410E-01     5.674590E-01
    1.770800E-01     6.124890E-01
    8.106100E-02     1.432310E-01
 S 1 1.00
    3.746410E-01     1.000000E+00
 S 1 1.00
    1.770800E-01     1.000000E+00
 S 1 1.00
    1.001000E-01     1.000000E+00
 S 1 1.00
    4.120000E-02     1.000000E+00
 P 9 1.00
    1.889880E+02     5.850000E-04
    2.128680E+01     3.692300E-02
    1.003960E+01    -2.353240E-01
    3.451800E+00     3.414830E-01
    1.974560E+00     5.347880E-01
    1.024200E+00     2.651410E-01
    4.494370E-01     2.578700E-02
    1.866480E-01     5.220000E-04
    7.348100E-02     6.060000E-04
 P 9 1.00
    1.889880E+02    -2.560000E-04
    2.128680E+01    -1.168200E-02
    1.003960E+01     8.319200E-02
    3.451800E+00    -1.569700E-01
    1.974560E+00    -2.245180E-01
    1.024200E+00    -1.144510E-01
    4.494370E-01     3.753560E-01
    1.866480E-01     5.751360E-01
    7.348100E-02     2.459170E-01
 P 1 1.00
    5.981000E-01     1.000000E+00
 P 1 1.00
    9.618000E-02     1.000000E+00
 P 1 1.00
    3.590000E-02     1.000000E+00
 D 9 1.00
    1.326620E+02     5.720000E-04
    3.760540E+01     4.402000E-03
    1.038910E+01    -4.092200E-02
    6.490170E+00     9.966100E-02
    3.454510E+00     3.226630E-01
    1.844130E+00     4.003430E-01
    9.624780E-01     2.683060E-01
    4.728530E-01     8.484700E-02
    1.932000E-01     7.632000E-03
 D 1 1.00
    4.728530E-01     1.000000E+00
 D 1 1.00
    1.932000E-01     1.000000E+00
 D 1 1.00
    7.820000E-02     1.000000E+00
 F 1 1.00
    4.064000E-01     1.000000E+00
 F 1 1.00
    1.848000E-01     1.000000E+00
****

I 0
ECP28MDF,4,28
G-Komponente
1
2 1.000000 0.000000
S-G
3
2 40.033376 49.989649
2 17.300576 281.006556
2 8.851720 61.416739
P-G
4
2 15.720141 67.416239
2 15.208222 134.807696
2 8.294186 14.566548
2 7.753949 28.968422
D-G
4
2 13.817751 35.538756
2 13.587805 53.339759
2 6.947630 9.716466
2 6.960099 14.977500
F-G
4
2 18.522950 -20.176618
2 18.251035 -26.088077
2 7.557901 -0.220434
2 7.597404 -0.221646










