%nproc=28
%mem=120GB
%chk=/gscratch/ilahie/mccoygrp/coire_hocl/rOH_s_oop_0/clhocl/clhocl_rOH_s_05-20.chk
#p opt=(z-matrix) mp2/aug-cc-pvtz density=current

title

-1 1
O
X       1       10.
Cl      1       r1      2       90.
Cl      1       r2      2       90.     3       a1
H       1       r3      2       oop     3       a1
Variables
 r1=1.68274941 F
 r2=2.90467605 F
 r3=0.5 S 30 0.05
 a1=103.53015695 F
 OOP= 90. F
