%nproc=28
%mem=120GB
%chk=/gscratch/ilahie/mccoygrp/coire_hocl/rOH_s_oop_0/clhocl/clhocl_075_sp.chk
#p pop=NBO SP NoSymm mp2/aug-cc-pvtz density=current

title

-1 1
O
X       1       10.
Cl      1       r1      2       90.
Cl      1       r2      2       90.     3       a1
H       1       r3      2       oop     3       a1
Variables
 r1=1.68274941
 r2=2.90467605
 r3=0.75
 a1=103.53015695
 OOP= 90.
 
--LINK1--

%nproc=28
%mem=120GB
%chk=/gscratch/ilahie/mccoygrp/coire_hocl/rOH_s_oop_0/clhocl/clhocl_080_sp.chk
#p pop=NBO SP NoSymm mp2/aug-cc-pvtz density=current

title

-1 1
O
X       1       10.
Cl      1       r1      2       90.
Cl      1       r2      2       90.     3       a1
H       1       r3      2       oop     3       a1
Variables
 r1=1.68274941
 r2=2.90467605
 r3=0.80
 a1=103.53015695
 OOP= 90.
 
--LINK1--

%nproc=28
%mem=120GB
%chk=/gscratch/ilahie/mccoygrp/coire_hocl/rOH_s_oop_0/clhocl/clhocl_085_sp.chk
#p pop=NBO SP NoSymm mp2/aug-cc-pvtz density=current

title

-1 1
O
X       1       10.
Cl      1       r1      2       90.
Cl      1       r2      2       90.     3       a1
H       1       r3      2       oop     3       a1
Variables
 r1=1.68274941
 r2=2.90467605
 r3=0.85
 a1=103.53015695
 OOP= 90.
 
--LINK1--

%nproc=28
%mem=120GB
%chk=/gscratch/ilahie/mccoygrp/coire_hocl/rOH_s_oop_0/clhocl/clhocl_090_sp.chk
#p pop=NBO SP NoSymm mp2/aug-cc-pvtz density=current

title

-1 1
O
X       1       10.
Cl      1       r1      2       90.
Cl      1       r2      2       90.     3       a1
H       1       r3      2       oop     3       a1
Variables
 r1=1.68274941
 r2=2.90467605
 r3=0.90
 a1=103.53015695
 OOP= 90.

--LINK1--

%nproc=28
%mem=120GB
%chk=/gscratch/ilahie/mccoygrp/coire_hocl/rOH_s_oop_0/clhocl/clhocl_095_sp.chk
#p pop=NBO SP NoSymm mp2/aug-cc-pvtz density=current

title

-1 1
O
X       1       10.
Cl      1       r1      2       90.
Cl      1       r2      2       90.     3       a1
H       1       r3      2       oop     3       a1
Variables
 r1=1.68274941
 r2=2.90467605
 r3=0.95
 a1=103.53015695
 OOP= 90.
 
--LINK1--

%nproc=28
%mem=120GB
%chk=/gscratch/ilahie/mccoygrp/coire_hocl/rOH_s_oop_0/clhocl/clhocl_100_sp.chk
#p pop=NBO SP NoSymm mp2/aug-cc-pvtz density=current

title

-1 1
O
X       1       10.
Cl      1       r1      2       90.
Cl      1       r2      2       90.     3       a1
H       1       r3      2       oop     3       a1
Variables
 r1=1.68274941
 r2=2.90467605
 r3=1.00
 a1=103.53015695
 OOP= 90.

--LINK1--

%nproc=28
%mem=120GB
%chk=/gscratch/ilahie/mccoygrp/coire_hocl/rOH_s_oop_0/clhocl/clhocl_105_sp.chk
#p pop=NBO SP NoSymm mp2/aug-cc-pvtz density=current

title

-1 1
O
X       1       10.
Cl      1       r1      2       90.
Cl      1       r2      2       90.     3       a1
H       1       r3      2       oop     3       a1
Variables
 r1=1.68274941
 r2=2.90467605
 r3=1.05
 a1=103.53015695
 OOP= 90.
 
 
--LINK1--

%nproc=28
%mem=120GB
%chk=/gscratch/ilahie/mccoygrp/coire_hocl/rOH_s_oop_0/clhocl/clhocl_110_sp.chk
#p pop=NBO SP NoSymm mp2/aug-cc-pvtz density=current

title

-1 1
O
X       1       10.
Cl      1       r1      2       90.
Cl      1       r2      2       90.     3       a1
H       1       r3      2       oop     3       a1
Variables
 r1=1.68274941
 r2=2.90467605
 r3=1.10
 a1=103.53015695
 OOP= 90.
 
--LINK1--

%nproc=28
%mem=120GB
%chk=/gscratch/ilahie/mccoygrp/coire_hocl/rOH_s_oop_0/clhocl/clhocl_115_sp.chk
#p pop=NBO SP NoSymm mp2/aug-cc-pvtz density=current

title

-1 1
O
X       1       10.
Cl      1       r1      2       90.
Cl      1       r2      2       90.     3       a1
H       1       r3      2       oop     3       a1
Variables
 r1=1.68274941
 r2=2.90467605
 r3=1.15
 a1=103.53015695
 OOP= 90.

--LINK1--

%nproc=28
%mem=120GB
%chk=/gscratch/ilahie/mccoygrp/coire_hocl/rOH_s_oop_0/clhocl/clhocl_120_sp.chk
#p pop=NBO SP NoSymm mp2/aug-cc-pvtz density=current

title

-1 1
O
X       1       10.
Cl      1       r1      2       90.
Cl      1       r2      2       90.     3       a1
H       1       r3      2       oop     3       a1
Variables
 r1=1.68274941
 r2=2.90467605
 r3=1.20
 a1=103.53015695
 OOP= 90.
 
--LINK1--

%nproc=28
%mem=120GB
%chk=/gscratch/ilahie/mccoygrp/coire_hocl/rOH_s_oop_0/clhocl/clhocl_125_sp.chk
#p pop=NBO SP NoSymm mp2/aug-cc-pvtz density=current

title

-1 1
O
X       1       10.
Cl      1       r1      2       90.
Cl      1       r2      2       90.     3       a1
H       1       r3      2       oop     3       a1
Variables
 r1=1.68274941
 r2=2.90467605
 r3=1.25
 a1=103.53015695
 OOP= 90.
 
--LINK1--

%nproc=28
%mem=120GB
%chk=/gscratch/ilahie/mccoygrp/coire_hocl/rOH_s_oop_0/clhocl/clhocl_130_sp.chk
#p pop=NBO SP NoSymm mp2/aug-cc-pvtz density=current

title

-1 1
O
X       1       10.
Cl      1       r1      2       90.
Cl      1       r2      2       90.     3       a1
H       1       r3      2       oop     3       a1
Variables
 r1=1.68274941
 r2=2.90467605
 r3=1.30
 a1=103.53015695
 OOP= 90.


--LINK1--

%nproc=28
%mem=120GB
%chk=/gscratch/ilahie/mccoygrp/coire_hocl/rOH_s_oop_0/clhocl/clhocl_135_sp.chk
#p pop=NBO SP NoSymm mp2/aug-cc-pvtz density=current

title

-1 1
O
X       1       10.
Cl      1       r1      2       90.
Cl      1       r2      2       90.     3       a1
H       1       r3      2       oop     3       a1
Variables
 r1=1.68274941
 r2=2.90467605
 r3=1.35
 a1=103.53015695
 OOP= 90.

--LINK1--

%nproc=28
%mem=120GB
%chk=/gscratch/ilahie/mccoygrp/coire_hocl/rOH_s_oop_0/clhocl/clhocl_140_sp.chk
#p pop=NBO SP NoSymm mp2/aug-cc-pvtz density=current

title

-1 1
O
X       1       10.
Cl      1       r1      2       90.
Cl      1       r2      2       90.     3       a1
H       1       r3      2       oop     3       a1
Variables
 r1=1.68274941
 r2=2.90467605
 r3=1.40
 a1=103.53015695
 OOP= 90.
 
--LINK1--

%nproc=28
%mem=120GB
%chk=/gscratch/ilahie/mccoygrp/coire_hocl/rOH_s_oop_0/clhocl/clhocl_145_sp.chk
#p pop=NBO SP NoSymm mp2/aug-cc-pvtz density=current

title

-1 1
O
X       1       10.
Cl      1       r1      2       90.
Cl      1       r2      2       90.     3       a1
H       1       r3      2       oop     3       a1
Variables
 r1=1.68274941
 r2=2.90467605
 r3=1.45
 a1=103.53015695
 OOP= 90.
 
--LINK1--

%nproc=28
%mem=120GB
%chk=/gscratch/ilahie/mccoygrp/coire_hocl/rOH_s_oop_0/clhocl/clhocl_150_sp.chk
#p pop=NBO SP NoSymm mp2/aug-cc-pvtz density=current

title

-1 1
O
X       1       10.
Cl      1       r1      2       90.
Cl      1       r2      2       90.     3       a1
H       1       r3      2       oop     3       a1
Variables
 r1=1.68274941
 r2=2.90467605
 r3=1.50
 a1=103.53015695
 OOP= 90.




