JOB=br0
g09 << EOF
%nproc=12
%mem=8000MB
%chk=/home/netid.washington.edu/cgavinh/mccoy_hocl/rOH_s_oop_0/brhod/brhod_0_opt.chk 
#p opt=(z-matrix) mp2/aug-cc-pvtz density=current

title

-1 1
O
X	1	10.
H(iso=2)	1	r1	2	90.
Br	1	r2	2	90.	3	a1
H	1	r3	2	oop	3	a1
Variables
 r1=0.960700 
 r2=3.07067241 
 r3=0.960700
 a1=103.50790746 
 OOP= 90.   






