JOB=br135
g09 << EOF
%nproc=12
%mem=8000MB
%chk=/home/netid.washington.edu/cgavinh/mccoy_hocl/rOH_s_oop_0/brhod/brhod_rOH_135_sp.chk
#p pop=NBO SP NoSymm mp2/aug-cc-pvtz density=current

title

-1 1
O
X       1       10.
H(iso=2)      1       r1      2       90.
Br      1       r2      2       90.     3       a1
H       1       r3      2       oop     3       a1
Variables
 r1=0.96078759
 r2=3.25661955
 r3=1.35
 a1=101.73887131
 OOP= 90.
